16
Lattice="6.87862490633391 0.0 4e-16 1.2e-15 6.87862490633391 4e-16 0.0 0.0 6.87862490633391" Properties=species:S:1:pos:R:3 pbc="T T T"
Li       0.00000000       0.00000000       0.00000000
Li       1.71965623       1.71965623       1.71965623
Li       0.00000000       0.00000000       3.43931245
Li       1.71965623       1.71965623       5.15896868
Li       0.00000000       3.43931245       0.00000000
Li       1.71965623       5.15896868       1.71965623
Li       0.00000000       3.43931245       3.43931245
Li       1.71965623       5.15896868       5.15896868
Li       3.43931245       0.00000000       0.00000000
Li       5.15896868       1.71965623       1.71965623
Li       3.43931245       0.00000000       3.43931245
Li       5.15896868       1.71965623       5.15896868
Li       3.43931245       3.43931245       0.00000000
Li       5.15896868       5.15896868       1.71965623
Li       3.43931245       3.43931245       3.43931245
Li       5.15896868       5.15896868       5.15896868
